20
# atom x y z
C 1.6915043166193506 -0.12567313787970347 -0.44837850642323207
C 4.4090019948871015 0.16405743531518094 0.44271814936099374
O 4.998721085826368 1.675932473903194 2.106607782687033
N 6.106037445506993 -1.4039214497474413 -0.7756829712918977
C 8.743602400267513 -1.630103843673762 -0.42572123159372355
C 10.039702069852696 -3.39529019576464 -1.9323481045077502
C 12.63572933385223 -3.731852322292951 -1.7035311541019758
C 13.997829084157221 -2.2955662308627245 0.05334820480460954
O 16.56101874294083 -2.703038339919677 0.20298758513542234
C 12.720818670505817 -0.5364398824666583 1.5580192036684102
C 10.115252915219994 -0.1929979152109842 1.3340885269410567
H 0.5158496006898781 -0.6404247061389733 1.1823130061015446
H 1.4244637598338783 -1.5399868949506466 -1.9423614536587754
H 1.025726275679088 1.7146964896170067 -1.1383547714478444
H 5.3665288739649 -2.563131488991866 -2.114582068304435
H 8.998105761365903 -4.52757687451485 -3.310296348626134
H 13.631167958195558 -5.101481911843672 -2.87478693872604
H 17.25653945501859 -1.586573029277471 1.4888428935904938
H 13.76536632831052 0.5952780055984269 2.936038641948192
H 9.12840682003172 1.1750235142439382 2.50560012252724
